
---------- Begin Simulation Statistics ----------
simSeconds                                   0.000374                       # Number of seconds simulated (Second)
simTicks                                    374372500                       # Number of ticks simulated (Tick)
finalTick                                   374372500                       # Number of ticks from beginning of simulation (restored from checkpoints and never reset) (Tick)
simFreq                                  1000000000000                       # The number of ticks per simulated second ((Tick/Second))
hostSeconds                                      0.18                       # Real time elapsed on the host (Second)
hostTickRate                               2031795264                       # The number of ticks simulated per host second (ticks/s) ((Tick/Second))
hostMemory                                     722916                       # Number of bytes of host memory used (Byte)
simInsts                                       202166                       # Number of instructions simulated (Count)
simOps                                         202261                       # Number of ops (including micro ops) simulated (Count)
hostInstRate                                   837463                       # Simulator instruction rate (inst/s) ((Count/Second))
hostOpRate                                     819355                       # Simulator op (including micro ops) rate (op/s) ((Count/Second))
system.clk_domain.clock                          1000                       # Clock period in ticks (Tick)
system.cpu0.numCycles                          748745                       # Number of cpu cycles simulated (Cycle)
system.cpu0.cpi                              4.329032                       # CPI: cycles per instruction (core level) ((Cycle/Count))
system.cpu0.ipc                              0.230999                       # IPC: instructions per cycle (core level) ((Count/Cycle))
system.cpu0.numWorkItemsStarted                     0                       # Number of work items this cpu started (Count)
system.cpu0.numWorkItemsCompleted                   0                       # Number of work items this cpu completed (Count)
system.cpu0.issuedInstType_0::No_OpClass         3219      1.86%      1.86% # Number of insts issued per FU, per thread (Count)
system.cpu0.issuedInstType_0::IntAlu           134342     77.63%     79.49% # Number of insts issued per FU, per thread (Count)
system.cpu0.issuedInstType_0::IntMult             226      0.13%     79.63% # Number of insts issued per FU, per thread (Count)
system.cpu0.issuedInstType_0::IntDiv               49      0.03%     79.65% # Number of insts issued per FU, per thread (Count)
system.cpu0.issuedInstType_0::FloatAdd              0      0.00%     79.65% # Number of insts issued per FU, per thread (Count)
system.cpu0.issuedInstType_0::FloatCmp              0      0.00%     79.65% # Number of insts issued per FU, per thread (Count)
system.cpu0.issuedInstType_0::FloatCvt              0      0.00%     79.65% # Number of insts issued per FU, per thread (Count)
system.cpu0.issuedInstType_0::FloatMult             0      0.00%     79.65% # Number of insts issued per FU, per thread (Count)
system.cpu0.issuedInstType_0::FloatMultAcc            0      0.00%     79.65% # Number of insts issued per FU, per thread (Count)
system.cpu0.issuedInstType_0::FloatDiv              0      0.00%     79.65% # Number of insts issued per FU, per thread (Count)
system.cpu0.issuedInstType_0::FloatMisc             0      0.00%     79.65% # Number of insts issued per FU, per thread (Count)
system.cpu0.issuedInstType_0::FloatSqrt             0      0.00%     79.65% # Number of insts issued per FU, per thread (Count)
system.cpu0.issuedInstType_0::SimdAdd               0      0.00%     79.65% # Number of insts issued per FU, per thread (Count)
system.cpu0.issuedInstType_0::SimdAddAcc            0      0.00%     79.65% # Number of insts issued per FU, per thread (Count)
system.cpu0.issuedInstType_0::SimdAlu               0      0.00%     79.65% # Number of insts issued per FU, per thread (Count)
system.cpu0.issuedInstType_0::SimdCmp               0      0.00%     79.65% # Number of insts issued per FU, per thread (Count)
system.cpu0.issuedInstType_0::SimdCvt               0      0.00%     79.65% # Number of insts issued per FU, per thread (Count)
system.cpu0.issuedInstType_0::SimdMisc              0      0.00%     79.65% # Number of insts issued per FU, per thread (Count)
system.cpu0.issuedInstType_0::SimdMult              0      0.00%     79.65% # Number of insts issued per FU, per thread (Count)
system.cpu0.issuedInstType_0::SimdMultAcc            0      0.00%     79.65% # Number of insts issued per FU, per thread (Count)
system.cpu0.issuedInstType_0::SimdMatMultAcc            0      0.00%     79.65% # Number of insts issued per FU, per thread (Count)
system.cpu0.issuedInstType_0::SimdShift             0      0.00%     79.65% # Number of insts issued per FU, per thread (Count)
system.cpu0.issuedInstType_0::SimdShiftAcc            0      0.00%     79.65% # Number of insts issued per FU, per thread (Count)
system.cpu0.issuedInstType_0::SimdDiv               0      0.00%     79.65% # Number of insts issued per FU, per thread (Count)
system.cpu0.issuedInstType_0::SimdSqrt              0      0.00%     79.65% # Number of insts issued per FU, per thread (Count)
system.cpu0.issuedInstType_0::SimdFloatAdd            0      0.00%     79.65% # Number of insts issued per FU, per thread (Count)
system.cpu0.issuedInstType_0::SimdFloatAlu            0      0.00%     79.65% # Number of insts issued per FU, per thread (Count)
system.cpu0.issuedInstType_0::SimdFloatCmp            0      0.00%     79.65% # Number of insts issued per FU, per thread (Count)
system.cpu0.issuedInstType_0::SimdFloatCvt            0      0.00%     79.65% # Number of insts issued per FU, per thread (Count)
system.cpu0.issuedInstType_0::SimdFloatDiv            0      0.00%     79.65% # Number of insts issued per FU, per thread (Count)
system.cpu0.issuedInstType_0::SimdFloatMisc            0      0.00%     79.65% # Number of insts issued per FU, per thread (Count)
system.cpu0.issuedInstType_0::SimdFloatMult            0      0.00%     79.65% # Number of insts issued per FU, per thread (Count)
system.cpu0.issuedInstType_0::SimdFloatMultAcc            0      0.00%     79.65% # Number of insts issued per FU, per thread (Count)
system.cpu0.issuedInstType_0::SimdFloatMatMultAcc            0      0.00%     79.65% # Number of insts issued per FU, per thread (Count)
system.cpu0.issuedInstType_0::SimdFloatSqrt            0      0.00%     79.65% # Number of insts issued per FU, per thread (Count)
system.cpu0.issuedInstType_0::SimdReduceAdd            0      0.00%     79.65% # Number of insts issued per FU, per thread (Count)
system.cpu0.issuedInstType_0::SimdReduceAlu            0      0.00%     79.65% # Number of insts issued per FU, per thread (Count)
system.cpu0.issuedInstType_0::SimdReduceCmp            0      0.00%     79.65% # Number of insts issued per FU, per thread (Count)
system.cpu0.issuedInstType_0::SimdFloatReduceAdd            0      0.00%     79.65% # Number of insts issued per FU, per thread (Count)
system.cpu0.issuedInstType_0::SimdFloatReduceCmp            0      0.00%     79.65% # Number of insts issued per FU, per thread (Count)
system.cpu0.issuedInstType_0::SimdAes               0      0.00%     79.65% # Number of insts issued per FU, per thread (Count)
system.cpu0.issuedInstType_0::SimdAesMix            0      0.00%     79.65% # Number of insts issued per FU, per thread (Count)
system.cpu0.issuedInstType_0::SimdSha1Hash            0      0.00%     79.65% # Number of insts issued per FU, per thread (Count)
system.cpu0.issuedInstType_0::SimdSha1Hash2            0      0.00%     79.65% # Number of insts issued per FU, per thread (Count)
system.cpu0.issuedInstType_0::SimdSha256Hash            0      0.00%     79.65% # Number of insts issued per FU, per thread (Count)
system.cpu0.issuedInstType_0::SimdSha256Hash2            0      0.00%     79.65% # Number of insts issued per FU, per thread (Count)
system.cpu0.issuedInstType_0::SimdShaSigma2            0      0.00%     79.65% # Number of insts issued per FU, per thread (Count)
system.cpu0.issuedInstType_0::SimdShaSigma3            0      0.00%     79.65% # Number of insts issued per FU, per thread (Count)
system.cpu0.issuedInstType_0::SimdSha3              0      0.00%     79.65% # Number of insts issued per FU, per thread (Count)
system.cpu0.issuedInstType_0::SimdSm4e              0      0.00%     79.65% # Number of insts issued per FU, per thread (Count)
system.cpu0.issuedInstType_0::SimdCrc               0      0.00%     79.65% # Number of insts issued per FU, per thread (Count)
system.cpu0.issuedInstType_0::SimdPredAlu            0      0.00%     79.65% # Number of insts issued per FU, per thread (Count)
system.cpu0.issuedInstType_0::SimdDotProd            0      0.00%     79.65% # Number of insts issued per FU, per thread (Count)
system.cpu0.issuedInstType_0::Matrix                0      0.00%     79.65% # Number of insts issued per FU, per thread (Count)
system.cpu0.issuedInstType_0::MatrixMov             0      0.00%     79.65% # Number of insts issued per FU, per thread (Count)
system.cpu0.issuedInstType_0::MatrixOP              0      0.00%     79.65% # Number of insts issued per FU, per thread (Count)
system.cpu0.issuedInstType_0::MemRead           27674     15.99%     95.65% # Number of insts issued per FU, per thread (Count)
system.cpu0.issuedInstType_0::MemWrite           7522      4.35%     99.99% # Number of insts issued per FU, per thread (Count)
system.cpu0.issuedInstType_0::FloatMemRead            0      0.00%     99.99% # Number of insts issued per FU, per thread (Count)
system.cpu0.issuedInstType_0::FloatMemWrite           12      0.01%    100.00% # Number of insts issued per FU, per thread (Count)
system.cpu0.issuedInstType_0::InstPrefetch            0      0.00%    100.00% # Number of insts issued per FU, per thread (Count)
system.cpu0.issuedInstType_0::SimdUnitStrideLoad            0      0.00%    100.00% # Number of insts issued per FU, per thread (Count)
system.cpu0.issuedInstType_0::SimdUnitStrideStore            0      0.00%    100.00% # Number of insts issued per FU, per thread (Count)
system.cpu0.issuedInstType_0::SimdUnitStrideMaskLoad            0      0.00%    100.00% # Number of insts issued per FU, per thread (Count)
system.cpu0.issuedInstType_0::SimdUnitStrideMaskStore            0      0.00%    100.00% # Number of insts issued per FU, per thread (Count)
system.cpu0.issuedInstType_0::SimdStridedLoad            0      0.00%    100.00% # Number of insts issued per FU, per thread (Count)
system.cpu0.issuedInstType_0::SimdStridedStore            0      0.00%    100.00% # Number of insts issued per FU, per thread (Count)
system.cpu0.issuedInstType_0::SimdIndexedLoad            0      0.00%    100.00% # Number of insts issued per FU, per thread (Count)
system.cpu0.issuedInstType_0::SimdIndexedStore            0      0.00%    100.00% # Number of insts issued per FU, per thread (Count)
system.cpu0.issuedInstType_0::SimdWholeRegisterLoad            0      0.00%    100.00% # Number of insts issued per FU, per thread (Count)
system.cpu0.issuedInstType_0::SimdWholeRegisterStore            0      0.00%    100.00% # Number of insts issued per FU, per thread (Count)
system.cpu0.issuedInstType_0::SimdUnitStrideFaultOnlyFirstLoad            0      0.00%    100.00% # Number of insts issued per FU, per thread (Count)
system.cpu0.issuedInstType_0::SimdUnitStrideSegmentedLoad            0      0.00%    100.00% # Number of insts issued per FU, per thread (Count)
system.cpu0.issuedInstType_0::SimdUnitStrideSegmentedStore            0      0.00%    100.00% # Number of insts issued per FU, per thread (Count)
system.cpu0.issuedInstType_0::SimdUnitStrideSegmentedFaultOnlyFirstLoad            0      0.00%    100.00% # Number of insts issued per FU, per thread (Count)
system.cpu0.issuedInstType_0::SimdStrideSegmentedLoad            0      0.00%    100.00% # Number of insts issued per FU, per thread (Count)
system.cpu0.issuedInstType_0::SimdStrideSegmentedStore            0      0.00%    100.00% # Number of insts issued per FU, per thread (Count)
system.cpu0.issuedInstType_0::SimdExt               0      0.00%    100.00% # Number of insts issued per FU, per thread (Count)
system.cpu0.issuedInstType_0::SimdFloatExt            0      0.00%    100.00% # Number of insts issued per FU, per thread (Count)
system.cpu0.issuedInstType_0::SimdConfig            0      0.00%    100.00% # Number of insts issued per FU, per thread (Count)
system.cpu0.issuedInstType_0::SimdBf16Add            0      0.00%    100.00% # Number of insts issued per FU, per thread (Count)
system.cpu0.issuedInstType_0::SimdBf16Cmp            0      0.00%    100.00% # Number of insts issued per FU, per thread (Count)
system.cpu0.issuedInstType_0::SimdBf16Cvt            0      0.00%    100.00% # Number of insts issued per FU, per thread (Count)
system.cpu0.issuedInstType_0::SimdBf16DotProd            0      0.00%    100.00% # Number of insts issued per FU, per thread (Count)
system.cpu0.issuedInstType_0::SimdBf16MatMultAcc            0      0.00%    100.00% # Number of insts issued per FU, per thread (Count)
system.cpu0.issuedInstType_0::SimdBf16Mult            0      0.00%    100.00% # Number of insts issued per FU, per thread (Count)
system.cpu0.issuedInstType_0::SimdBf16MultAcc            0      0.00%    100.00% # Number of insts issued per FU, per thread (Count)
system.cpu0.issuedInstType_0::Bf16Cvt               0      0.00%    100.00% # Number of insts issued per FU, per thread (Count)
system.cpu0.issuedInstType_0::System                0      0.00%    100.00% # Number of insts issued per FU, per thread (Count)
system.cpu0.issuedInstType_0::total            173044                       # Number of insts issued per FU, per thread (Count)
system.cpu0.commitStats0.numInsts              172959                       # Number of instructions committed (thread level) (Count)
system.cpu0.commitStats0.numOps                173044                       # Number of ops (including micro ops) committed (thread level) (Count)
system.cpu0.commitStats0.numInstsNotNOP        172959                       # Number of instructions committed excluding NOPs or prefetches (Count)
system.cpu0.commitStats0.numOpsNotNOP          173044                       # Number of Ops (including micro ops) Simulated (Count)
system.cpu0.commitStats0.numUserInsts          172959                       # Numbrer of instructions committed in user mode (Count)
system.cpu0.commitStats0.numUserOps            173044                       # Number of ops committed in user mode (Count)
system.cpu0.commitStats0.ratioUserInsts             1                       # Ratio of instructions committed in user mode (Ratio)
system.cpu0.commitStats0.ratioUserOps               1                       # Ratio of ops committed in user mode (Ratio)
system.cpu0.commitStats0.cpi                 4.329032                       # CPI: cycles per instruction (thread level) ((Cycle/Count))
system.cpu0.commitStats0.ipc                 0.230999                       # IPC: instructions per cycle (thread level) ((Count/Cycle))
system.cpu0.commitStats0.numMemRefs             35208                       # Number of memory references committed (Count)
system.cpu0.commitStats0.numFpInsts                12                       # Number of float instructions (Count)
system.cpu0.commitStats0.numIntInsts           166492                       # Number of integer instructions (Count)
system.cpu0.commitStats0.numLoadInsts           27643                       # Number of load instructions (Count)
system.cpu0.commitStats0.numStoreInsts           7565                       # Number of store instructions (Count)
system.cpu0.commitStats0.numVecInsts                0                       # Number of vector instructions (Count)
system.cpu0.commitStats0.committedInstType::No_OpClass         3219      1.86%      1.86% # Class of committed instruction. (Count)
system.cpu0.commitStats0.committedInstType::IntAlu       134342     77.63%     79.49% # Class of committed instruction. (Count)
system.cpu0.commitStats0.committedInstType::IntMult          226      0.13%     79.63% # Class of committed instruction. (Count)
system.cpu0.commitStats0.committedInstType::IntDiv           49      0.03%     79.65% # Class of committed instruction. (Count)
system.cpu0.commitStats0.committedInstType::FloatAdd            0      0.00%     79.65% # Class of committed instruction. (Count)
system.cpu0.commitStats0.committedInstType::FloatCmp            0      0.00%     79.65% # Class of committed instruction. (Count)
system.cpu0.commitStats0.committedInstType::FloatCvt            0      0.00%     79.65% # Class of committed instruction. (Count)
system.cpu0.commitStats0.committedInstType::FloatMult            0      0.00%     79.65% # Class of committed instruction. (Count)
system.cpu0.commitStats0.committedInstType::FloatMultAcc            0      0.00%     79.65% # Class of committed instruction. (Count)
system.cpu0.commitStats0.committedInstType::FloatDiv            0      0.00%     79.65% # Class of committed instruction. (Count)
system.cpu0.commitStats0.committedInstType::FloatMisc            0      0.00%     79.65% # Class of committed instruction. (Count)
system.cpu0.commitStats0.committedInstType::FloatSqrt            0      0.00%     79.65% # Class of committed instruction. (Count)
system.cpu0.commitStats0.committedInstType::SimdAdd            0      0.00%     79.65% # Class of committed instruction. (Count)
system.cpu0.commitStats0.committedInstType::SimdAddAcc            0      0.00%     79.65% # Class of committed instruction. (Count)
system.cpu0.commitStats0.committedInstType::SimdAlu            0      0.00%     79.65% # Class of committed instruction. (Count)
system.cpu0.commitStats0.committedInstType::SimdCmp            0      0.00%     79.65% # Class of committed instruction. (Count)
system.cpu0.commitStats0.committedInstType::SimdCvt            0      0.00%     79.65% # Class of committed instruction. (Count)
system.cpu0.commitStats0.committedInstType::SimdMisc            0      0.00%     79.65% # Class of committed instruction. (Count)
system.cpu0.commitStats0.committedInstType::SimdMult            0      0.00%     79.65% # Class of committed instruction. (Count)
system.cpu0.commitStats0.committedInstType::SimdMultAcc            0      0.00%     79.65% # Class of committed instruction. (Count)
system.cpu0.commitStats0.committedInstType::SimdMatMultAcc            0      0.00%     79.65% # Class of committed instruction. (Count)
system.cpu0.commitStats0.committedInstType::SimdShift            0      0.00%     79.65% # Class of committed instruction. (Count)
system.cpu0.commitStats0.committedInstType::SimdShiftAcc            0      0.00%     79.65% # Class of committed instruction. (Count)
system.cpu0.commitStats0.committedInstType::SimdDiv            0      0.00%     79.65% # Class of committed instruction. (Count)
system.cpu0.commitStats0.committedInstType::SimdSqrt            0      0.00%     79.65% # Class of committed instruction. (Count)
system.cpu0.commitStats0.committedInstType::SimdFloatAdd            0      0.00%     79.65% # Class of committed instruction. (Count)
system.cpu0.commitStats0.committedInstType::SimdFloatAlu            0      0.00%     79.65% # Class of committed instruction. (Count)
system.cpu0.commitStats0.committedInstType::SimdFloatCmp            0      0.00%     79.65% # Class of committed instruction. (Count)
system.cpu0.commitStats0.committedInstType::SimdFloatCvt            0      0.00%     79.65% # Class of committed instruction. (Count)
system.cpu0.commitStats0.committedInstType::SimdFloatDiv            0      0.00%     79.65% # Class of committed instruction. (Count)
system.cpu0.commitStats0.committedInstType::SimdFloatMisc            0      0.00%     79.65% # Class of committed instruction. (Count)
system.cpu0.commitStats0.committedInstType::SimdFloatMult            0      0.00%     79.65% # Class of committed instruction. (Count)
system.cpu0.commitStats0.committedInstType::SimdFloatMultAcc            0      0.00%     79.65% # Class of committed instruction. (Count)
system.cpu0.commitStats0.committedInstType::SimdFloatMatMultAcc            0      0.00%     79.65% # Class of committed instruction. (Count)
system.cpu0.commitStats0.committedInstType::SimdFloatSqrt            0      0.00%     79.65% # Class of committed instruction. (Count)
system.cpu0.commitStats0.committedInstType::SimdReduceAdd            0      0.00%     79.65% # Class of committed instruction. (Count)
system.cpu0.commitStats0.committedInstType::SimdReduceAlu            0      0.00%     79.65% # Class of committed instruction. (Count)
system.cpu0.commitStats0.committedInstType::SimdReduceCmp            0      0.00%     79.65% # Class of committed instruction. (Count)
system.cpu0.commitStats0.committedInstType::SimdFloatReduceAdd            0      0.00%     79.65% # Class of committed instruction. (Count)
system.cpu0.commitStats0.committedInstType::SimdFloatReduceCmp            0      0.00%     79.65% # Class of committed instruction. (Count)
system.cpu0.commitStats0.committedInstType::SimdAes            0      0.00%     79.65% # Class of committed instruction. (Count)
system.cpu0.commitStats0.committedInstType::SimdAesMix            0      0.00%     79.65% # Class of committed instruction. (Count)
system.cpu0.commitStats0.committedInstType::SimdSha1Hash            0      0.00%     79.65% # Class of committed instruction. (Count)
system.cpu0.commitStats0.committedInstType::SimdSha1Hash2            0      0.00%     79.65% # Class of committed instruction. (Count)
system.cpu0.commitStats0.committedInstType::SimdSha256Hash            0      0.00%     79.65% # Class of committed instruction. (Count)
system.cpu0.commitStats0.committedInstType::SimdSha256Hash2            0      0.00%     79.65% # Class of committed instruction. (Count)
system.cpu0.commitStats0.committedInstType::SimdShaSigma2            0      0.00%     79.65% # Class of committed instruction. (Count)
system.cpu0.commitStats0.committedInstType::SimdShaSigma3            0      0.00%     79.65% # Class of committed instruction. (Count)
system.cpu0.commitStats0.committedInstType::SimdSha3            0      0.00%     79.65% # Class of committed instruction. (Count)
system.cpu0.commitStats0.committedInstType::SimdSm4e            0      0.00%     79.65% # Class of committed instruction. (Count)
system.cpu0.commitStats0.committedInstType::SimdCrc            0      0.00%     79.65% # Class of committed instruction. (Count)
system.cpu0.commitStats0.committedInstType::SimdPredAlu            0      0.00%     79.65% # Class of committed instruction. (Count)
system.cpu0.commitStats0.committedInstType::SimdDotProd            0      0.00%     79.65% # Class of committed instruction. (Count)
system.cpu0.commitStats0.committedInstType::Matrix            0      0.00%     79.65% # Class of committed instruction. (Count)
system.cpu0.commitStats0.committedInstType::MatrixMov            0      0.00%     79.65% # Class of committed instruction. (Count)
system.cpu0.commitStats0.committedInstType::MatrixOP            0      0.00%     79.65% # Class of committed instruction. (Count)
system.cpu0.commitStats0.committedInstType::MemRead        27674     15.99%     95.65% # Class of committed instruction. (Count)
system.cpu0.commitStats0.committedInstType::MemWrite         7522      4.35%     99.99% # Class of committed instruction. (Count)
system.cpu0.commitStats0.committedInstType::FloatMemRead            0      0.00%     99.99% # Class of committed instruction. (Count)
system.cpu0.commitStats0.committedInstType::FloatMemWrite           12      0.01%    100.00% # Class of committed instruction. (Count)
system.cpu0.commitStats0.committedInstType::InstPrefetch            0      0.00%    100.00% # Class of committed instruction. (Count)
system.cpu0.commitStats0.committedInstType::SimdUnitStrideLoad            0      0.00%    100.00% # Class of committed instruction. (Count)
system.cpu0.commitStats0.committedInstType::SimdUnitStrideStore            0      0.00%    100.00% # Class of committed instruction. (Count)
system.cpu0.commitStats0.committedInstType::SimdUnitStrideMaskLoad            0      0.00%    100.00% # Class of committed instruction. (Count)
system.cpu0.commitStats0.committedInstType::SimdUnitStrideMaskStore            0      0.00%    100.00% # Class of committed instruction. (Count)
system.cpu0.commitStats0.committedInstType::SimdStridedLoad            0      0.00%    100.00% # Class of committed instruction. (Count)
system.cpu0.commitStats0.committedInstType::SimdStridedStore            0      0.00%    100.00% # Class of committed instruction. (Count)
system.cpu0.commitStats0.committedInstType::SimdIndexedLoad            0      0.00%    100.00% # Class of committed instruction. (Count)
system.cpu0.commitStats0.committedInstType::SimdIndexedStore            0      0.00%    100.00% # Class of committed instruction. (Count)
system.cpu0.commitStats0.committedInstType::SimdWholeRegisterLoad            0      0.00%    100.00% # Class of committed instruction. (Count)
system.cpu0.commitStats0.committedInstType::SimdWholeRegisterStore            0      0.00%    100.00% # Class of committed instruction. (Count)
system.cpu0.commitStats0.committedInstType::SimdUnitStrideFaultOnlyFirstLoad            0      0.00%    100.00% # Class of committed instruction. (Count)
system.cpu0.commitStats0.committedInstType::SimdUnitStrideSegmentedLoad            0      0.00%    100.00% # Class of committed instruction. (Count)
system.cpu0.commitStats0.committedInstType::SimdUnitStrideSegmentedStore            0      0.00%    100.00% # Class of committed instruction. (Count)
system.cpu0.commitStats0.committedInstType::SimdUnitStrideSegmentedFaultOnlyFirstLoad            0      0.00%    100.00% # Class of committed instruction. (Count)
system.cpu0.commitStats0.committedInstType::SimdStrideSegmentedLoad            0      0.00%    100.00% # Class of committed instruction. (Count)
system.cpu0.commitStats0.committedInstType::SimdStrideSegmentedStore            0      0.00%    100.00% # Class of committed instruction. (Count)
system.cpu0.commitStats0.committedInstType::SimdExt            0      0.00%    100.00% # Class of committed instruction. (Count)
system.cpu0.commitStats0.committedInstType::SimdFloatExt            0      0.00%    100.00% # Class of committed instruction. (Count)
system.cpu0.commitStats0.committedInstType::SimdConfig            0      0.00%    100.00% # Class of committed instruction. (Count)
system.cpu0.commitStats0.committedInstType::SimdBf16Add            0      0.00%    100.00% # Class of committed instruction. (Count)
system.cpu0.commitStats0.committedInstType::SimdBf16Cmp            0      0.00%    100.00% # Class of committed instruction. (Count)
system.cpu0.commitStats0.committedInstType::SimdBf16Cvt            0      0.00%    100.00% # Class of committed instruction. (Count)
system.cpu0.commitStats0.committedInstType::SimdBf16DotProd            0      0.00%    100.00% # Class of committed instruction. (Count)
system.cpu0.commitStats0.committedInstType::SimdBf16MatMultAcc            0      0.00%    100.00% # Class of committed instruction. (Count)
system.cpu0.commitStats0.committedInstType::SimdBf16Mult            0      0.00%    100.00% # Class of committed instruction. (Count)
system.cpu0.commitStats0.committedInstType::SimdBf16MultAcc            0      0.00%    100.00% # Class of committed instruction. (Count)
system.cpu0.commitStats0.committedInstType::Bf16Cvt            0      0.00%    100.00% # Class of committed instruction. (Count)
system.cpu0.commitStats0.committedInstType::System            0      0.00%    100.00% # Class of committed instruction. (Count)
system.cpu0.commitStats0.committedInstType::total       173044                       # Class of committed instruction. (Count)
system.cpu0.commitStats0.committedControl::IsControl        45388                       # Class of control type instructions committed (Count)
system.cpu0.commitStats0.committedControl::IsDirectControl        40798                       # Class of control type instructions committed (Count)
system.cpu0.commitStats0.committedControl::IsIndirectControl         4590                       # Class of control type instructions committed (Count)
system.cpu0.commitStats0.committedControl::IsCondControl        35148                       # Class of control type instructions committed (Count)
system.cpu0.commitStats0.committedControl::IsUncondControl        10240                       # Class of control type instructions committed (Count)
system.cpu0.commitStats0.committedControl::IsCall         2417                       # Class of control type instructions committed (Count)
system.cpu0.commitStats0.committedControl::IsReturn         2412                       # Class of control type instructions committed (Count)
system.cpu0.commitStats0.functionCalls           2417                       # Number of function calls committed (Count)
system.cpu0.commitStats0.numCallsReturns         4829                       # Number of function calls and returns committed (Count)
system.cpu0.dcache.demandHits::cpu0.data        33870                       # number of demand (read+write) hits (Count)
system.cpu0.dcache.demandHits::total            33870                       # number of demand (read+write) hits (Count)
system.cpu0.dcache.overallHits::cpu0.data        33870                       # number of overall hits (Count)
system.cpu0.dcache.overallHits::total           33870                       # number of overall hits (Count)
system.cpu0.dcache.demandMisses::cpu0.data         1243                       # number of demand (read+write) misses (Count)
system.cpu0.dcache.demandMisses::total           1243                       # number of demand (read+write) misses (Count)
system.cpu0.dcache.overallMisses::cpu0.data         1243                       # number of overall misses (Count)
system.cpu0.dcache.overallMisses::total          1243                       # number of overall misses (Count)
system.cpu0.dcache.demandMissLatency::cpu0.data     92526000                       # number of demand (read+write) miss ticks (Tick)
system.cpu0.dcache.demandMissLatency::total     92526000                       # number of demand (read+write) miss ticks (Tick)
system.cpu0.dcache.overallMissLatency::cpu0.data     92526000                       # number of overall miss ticks (Tick)
system.cpu0.dcache.overallMissLatency::total     92526000                       # number of overall miss ticks (Tick)
system.cpu0.dcache.demandAccesses::cpu0.data        35113                       # number of demand (read+write) accesses (Count)
system.cpu0.dcache.demandAccesses::total        35113                       # number of demand (read+write) accesses (Count)
system.cpu0.dcache.overallAccesses::cpu0.data        35113                       # number of overall (read+write) accesses (Count)
system.cpu0.dcache.overallAccesses::total        35113                       # number of overall (read+write) accesses (Count)
system.cpu0.dcache.demandMissRate::cpu0.data     0.035400                       # miss rate for demand accesses (Ratio)
system.cpu0.dcache.demandMissRate::total     0.035400                       # miss rate for demand accesses (Ratio)
system.cpu0.dcache.overallMissRate::cpu0.data     0.035400                       # miss rate for overall accesses (Ratio)
system.cpu0.dcache.overallMissRate::total     0.035400                       # miss rate for overall accesses (Ratio)
system.cpu0.dcache.demandAvgMissLatency::cpu0.data 74437.650845                       # average overall miss latency in ticks ((Tick/Count))
system.cpu0.dcache.demandAvgMissLatency::total 74437.650845                       # average overall miss latency in ticks ((Tick/Count))
system.cpu0.dcache.overallAvgMissLatency::cpu0.data 74437.650845                       # average overall miss latency ((Tick/Count))
system.cpu0.dcache.overallAvgMissLatency::total 74437.650845                       # average overall miss latency ((Tick/Count))
system.cpu0.dcache.blockedCycles::no_mshrs            0                       # number of cycles access was blocked (Cycle)
system.cpu0.dcache.blockedCycles::no_wbuffers            0                       # number of cycles access was blocked (Cycle)
system.cpu0.dcache.blockedCycles::no_targets            0                       # number of cycles access was blocked (Cycle)
system.cpu0.dcache.blockedCauses::no_mshrs            0                       # number of times access was blocked (Count)
system.cpu0.dcache.blockedCauses::no_wbuffers            0                       # number of times access was blocked (Count)
system.cpu0.dcache.blockedCauses::no_targets            0                       # number of times access was blocked (Count)
system.cpu0.dcache.avgBlocked::no_mshrs           nan                       # average number of cycles each access was blocked ((Cycle/Count))
system.cpu0.dcache.avgBlocked::no_wbuffers          nan                       # average number of cycles each access was blocked ((Cycle/Count))
system.cpu0.dcache.avgBlocked::no_targets          nan                       # average number of cycles each access was blocked ((Cycle/Count))
system.cpu0.dcache.writebacks::writebacks           85                       # number of writebacks (Count)
system.cpu0.dcache.writebacks::total               85                       # number of writebacks (Count)
system.cpu0.dcache.demandMshrMisses::cpu0.data         1243                       # number of demand (read+write) MSHR misses (Count)
system.cpu0.dcache.demandMshrMisses::total         1243                       # number of demand (read+write) MSHR misses (Count)
system.cpu0.dcache.overallMshrMisses::cpu0.data         1243                       # number of overall MSHR misses (Count)
system.cpu0.dcache.overallMshrMisses::total         1243                       # number of overall MSHR misses (Count)
system.cpu0.dcache.demandMshrMissLatency::cpu0.data     91283000                       # number of demand (read+write) MSHR miss ticks (Tick)
system.cpu0.dcache.demandMshrMissLatency::total     91283000                       # number of demand (read+write) MSHR miss ticks (Tick)
system.cpu0.dcache.overallMshrMissLatency::cpu0.data     91283000                       # number of overall MSHR miss ticks (Tick)
system.cpu0.dcache.overallMshrMissLatency::total     91283000                       # number of overall MSHR miss ticks (Tick)
system.cpu0.dcache.demandMshrMissRate::cpu0.data     0.035400                       # mshr miss ratio for demand accesses (Ratio)
system.cpu0.dcache.demandMshrMissRate::total     0.035400                       # mshr miss ratio for demand accesses (Ratio)
system.cpu0.dcache.overallMshrMissRate::cpu0.data     0.035400                       # mshr miss ratio for overall accesses (Ratio)
system.cpu0.dcache.overallMshrMissRate::total     0.035400                       # mshr miss ratio for overall accesses (Ratio)
system.cpu0.dcache.demandAvgMshrMissLatency::cpu0.data 73437.650845                       # average overall mshr miss latency ((Tick/Count))
system.cpu0.dcache.demandAvgMshrMissLatency::total 73437.650845                       # average overall mshr miss latency ((Tick/Count))
system.cpu0.dcache.overallAvgMshrMissLatency::cpu0.data 73437.650845                       # average overall mshr miss latency ((Tick/Count))
system.cpu0.dcache.overallAvgMshrMissLatency::total 73437.650845                       # average overall mshr miss latency ((Tick/Count))
system.cpu0.dcache.replacements                   324                       # number of replacements (Count)
system.cpu0.dcache.LoadLockedReq.hits::cpu0.data           30                       # number of LoadLockedReq hits (Count)
system.cpu0.dcache.LoadLockedReq.hits::total           30                       # number of LoadLockedReq hits (Count)
system.cpu0.dcache.LoadLockedReq.misses::cpu0.data            3                       # number of LoadLockedReq misses (Count)
system.cpu0.dcache.LoadLockedReq.misses::total            3                       # number of LoadLockedReq misses (Count)
system.cpu0.dcache.LoadLockedReq.missLatency::cpu0.data       148000                       # number of LoadLockedReq miss ticks (Tick)
system.cpu0.dcache.LoadLockedReq.missLatency::total       148000                       # number of LoadLockedReq miss ticks (Tick)
system.cpu0.dcache.LoadLockedReq.accesses::cpu0.data           33                       # number of LoadLockedReq accesses(hits+misses) (Count)
system.cpu0.dcache.LoadLockedReq.accesses::total           33                       # number of LoadLockedReq accesses(hits+misses) (Count)
system.cpu0.dcache.LoadLockedReq.missRate::cpu0.data     0.090909                       # miss rate for LoadLockedReq accesses (Ratio)
system.cpu0.dcache.LoadLockedReq.missRate::total     0.090909                       # miss rate for LoadLockedReq accesses (Ratio)
system.cpu0.dcache.LoadLockedReq.avgMissLatency::cpu0.data 49333.333333                       # average LoadLockedReq miss latency ((Tick/Count))
system.cpu0.dcache.LoadLockedReq.avgMissLatency::total 49333.333333                       # average LoadLockedReq miss latency ((Tick/Count))
system.cpu0.dcache.LoadLockedReq.mshrMisses::cpu0.data            3                       # number of LoadLockedReq MSHR misses (Count)
system.cpu0.dcache.LoadLockedReq.mshrMisses::total            3                       # number of LoadLockedReq MSHR misses (Count)
system.cpu0.dcache.LoadLockedReq.mshrMissLatency::cpu0.data       145000                       # number of LoadLockedReq MSHR miss ticks (Tick)
system.cpu0.dcache.LoadLockedReq.mshrMissLatency::total       145000                       # number of LoadLockedReq MSHR miss ticks (Tick)
system.cpu0.dcache.LoadLockedReq.mshrMissRate::cpu0.data     0.090909                       # mshr miss rate for LoadLockedReq accesses (Ratio)
system.cpu0.dcache.LoadLockedReq.mshrMissRate::total     0.090909                       # mshr miss rate for LoadLockedReq accesses (Ratio)
system.cpu0.dcache.LoadLockedReq.avgMshrMissLatency::cpu0.data 48333.333333                       # average LoadLockedReq mshr miss latency ((Tick/Count))
system.cpu0.dcache.LoadLockedReq.avgMshrMissLatency::total 48333.333333                       # average LoadLockedReq mshr miss latency ((Tick/Count))
system.cpu0.dcache.ReadReq.hits::cpu0.data        26520                       # number of ReadReq hits (Count)
system.cpu0.dcache.ReadReq.hits::total          26520                       # number of ReadReq hits (Count)
system.cpu0.dcache.ReadReq.misses::cpu0.data         1090                       # number of ReadReq misses (Count)
system.cpu0.dcache.ReadReq.misses::total         1090                       # number of ReadReq misses (Count)
system.cpu0.dcache.ReadReq.missLatency::cpu0.data     81607000                       # number of ReadReq miss ticks (Tick)
system.cpu0.dcache.ReadReq.missLatency::total     81607000                       # number of ReadReq miss ticks (Tick)
system.cpu0.dcache.ReadReq.accesses::cpu0.data        27610                       # number of ReadReq accesses(hits+misses) (Count)
system.cpu0.dcache.ReadReq.accesses::total        27610                       # number of ReadReq accesses(hits+misses) (Count)
system.cpu0.dcache.ReadReq.missRate::cpu0.data     0.039478                       # miss rate for ReadReq accesses (Ratio)
system.cpu0.dcache.ReadReq.missRate::total     0.039478                       # miss rate for ReadReq accesses (Ratio)
system.cpu0.dcache.ReadReq.avgMissLatency::cpu0.data 74868.807339                       # average ReadReq miss latency ((Tick/Count))
system.cpu0.dcache.ReadReq.avgMissLatency::total 74868.807339                       # average ReadReq miss latency ((Tick/Count))
system.cpu0.dcache.ReadReq.mshrMisses::cpu0.data         1090                       # number of ReadReq MSHR misses (Count)
system.cpu0.dcache.ReadReq.mshrMisses::total         1090                       # number of ReadReq MSHR misses (Count)
system.cpu0.dcache.ReadReq.mshrMissLatency::cpu0.data     80517000                       # number of ReadReq MSHR miss ticks (Tick)
system.cpu0.dcache.ReadReq.mshrMissLatency::total     80517000                       # number of ReadReq MSHR miss ticks (Tick)
system.cpu0.dcache.ReadReq.mshrMissRate::cpu0.data     0.039478                       # mshr miss rate for ReadReq accesses (Ratio)
system.cpu0.dcache.ReadReq.mshrMissRate::total     0.039478                       # mshr miss rate for ReadReq accesses (Ratio)
system.cpu0.dcache.ReadReq.avgMshrMissLatency::cpu0.data 73868.807339                       # average ReadReq mshr miss latency ((Tick/Count))
system.cpu0.dcache.ReadReq.avgMshrMissLatency::total 73868.807339                       # average ReadReq mshr miss latency ((Tick/Count))
system.cpu0.dcache.StoreCondReq.hits::cpu0.data           30                       # number of StoreCondReq hits (Count)
system.cpu0.dcache.StoreCondReq.hits::total           30                       # number of StoreCondReq hits (Count)
system.cpu0.dcache.StoreCondReq.misses::cpu0.data            1                       # number of StoreCondReq misses (Count)
system.cpu0.dcache.StoreCondReq.misses::total            1                       # number of StoreCondReq misses (Count)
system.cpu0.dcache.StoreCondReq.missLatency::cpu0.data        14000                       # number of StoreCondReq miss ticks (Tick)
system.cpu0.dcache.StoreCondReq.missLatency::total        14000                       # number of StoreCondReq miss ticks (Tick)
system.cpu0.dcache.StoreCondReq.accesses::cpu0.data           31                       # number of StoreCondReq accesses(hits+misses) (Count)
system.cpu0.dcache.StoreCondReq.accesses::total           31                       # number of StoreCondReq accesses(hits+misses) (Count)
system.cpu0.dcache.StoreCondReq.missRate::cpu0.data     0.032258                       # miss rate for StoreCondReq accesses (Ratio)
system.cpu0.dcache.StoreCondReq.missRate::total     0.032258                       # miss rate for StoreCondReq accesses (Ratio)
system.cpu0.dcache.StoreCondReq.avgMissLatency::cpu0.data        14000                       # average StoreCondReq miss latency ((Tick/Count))
system.cpu0.dcache.StoreCondReq.avgMissLatency::total        14000                       # average StoreCondReq miss latency ((Tick/Count))
system.cpu0.dcache.StoreCondReq.mshrMisses::cpu0.data            1                       # number of StoreCondReq MSHR misses (Count)
system.cpu0.dcache.StoreCondReq.mshrMisses::total            1                       # number of StoreCondReq MSHR misses (Count)
system.cpu0.dcache.StoreCondReq.mshrMissLatency::cpu0.data        13000                       # number of StoreCondReq MSHR miss ticks (Tick)
system.cpu0.dcache.StoreCondReq.mshrMissLatency::total        13000                       # number of StoreCondReq MSHR miss ticks (Tick)
system.cpu0.dcache.StoreCondReq.mshrMissRate::cpu0.data     0.032258                       # mshr miss rate for StoreCondReq accesses (Ratio)
system.cpu0.dcache.StoreCondReq.mshrMissRate::total     0.032258                       # mshr miss rate for StoreCondReq accesses (Ratio)
system.cpu0.dcache.StoreCondReq.avgMshrMissLatency::cpu0.data        13000                       # average StoreCondReq mshr miss latency ((Tick/Count))
system.cpu0.dcache.StoreCondReq.avgMshrMissLatency::total        13000                       # average StoreCondReq mshr miss latency ((Tick/Count))
system.cpu0.dcache.SwapReq.hits::cpu0.data           28                       # number of SwapReq hits (Count)
system.cpu0.dcache.SwapReq.hits::total             28                       # number of SwapReq hits (Count)
system.cpu0.dcache.SwapReq.misses::cpu0.data            3                       # number of SwapReq misses (Count)
system.cpu0.dcache.SwapReq.misses::total            3                       # number of SwapReq misses (Count)
system.cpu0.dcache.SwapReq.missLatency::cpu0.data        12000                       # number of SwapReq miss ticks (Tick)
system.cpu0.dcache.SwapReq.missLatency::total        12000                       # number of SwapReq miss ticks (Tick)
system.cpu0.dcache.SwapReq.accesses::cpu0.data           31                       # number of SwapReq accesses(hits+misses) (Count)
system.cpu0.dcache.SwapReq.accesses::total           31                       # number of SwapReq accesses(hits+misses) (Count)
system.cpu0.dcache.SwapReq.missRate::cpu0.data     0.096774                       # miss rate for SwapReq accesses (Ratio)
system.cpu0.dcache.SwapReq.missRate::total     0.096774                       # miss rate for SwapReq accesses (Ratio)
system.cpu0.dcache.SwapReq.avgMissLatency::cpu0.data         4000                       # average SwapReq miss latency ((Tick/Count))
system.cpu0.dcache.SwapReq.avgMissLatency::total         4000                       # average SwapReq miss latency ((Tick/Count))
system.cpu0.dcache.SwapReq.mshrMisses::cpu0.data            3                       # number of SwapReq MSHR misses (Count)
system.cpu0.dcache.SwapReq.mshrMisses::total            3                       # number of SwapReq MSHR misses (Count)
system.cpu0.dcache.SwapReq.mshrMissLatency::cpu0.data         9000                       # number of SwapReq MSHR miss ticks (Tick)
system.cpu0.dcache.SwapReq.mshrMissLatency::total         9000                       # number of SwapReq MSHR miss ticks (Tick)
system.cpu0.dcache.SwapReq.mshrMissRate::cpu0.data     0.096774                       # mshr miss rate for SwapReq accesses (Ratio)
system.cpu0.dcache.SwapReq.mshrMissRate::total     0.096774                       # mshr miss rate for SwapReq accesses (Ratio)
system.cpu0.dcache.SwapReq.avgMshrMissLatency::cpu0.data         3000                       # average SwapReq mshr miss latency ((Tick/Count))
system.cpu0.dcache.SwapReq.avgMshrMissLatency::total         3000                       # average SwapReq mshr miss latency ((Tick/Count))
system.cpu0.dcache.WriteReq.hits::cpu0.data         7350                       # number of WriteReq hits (Count)
system.cpu0.dcache.WriteReq.hits::total          7350                       # number of WriteReq hits (Count)
system.cpu0.dcache.WriteReq.misses::cpu0.data          153                       # number of WriteReq misses (Count)
system.cpu0.dcache.WriteReq.misses::total          153                       # number of WriteReq misses (Count)
system.cpu0.dcache.WriteReq.missLatency::cpu0.data     10919000                       # number of WriteReq miss ticks (Tick)
system.cpu0.dcache.WriteReq.missLatency::total     10919000                       # number of WriteReq miss ticks (Tick)
system.cpu0.dcache.WriteReq.accesses::cpu0.data         7503                       # number of WriteReq accesses(hits+misses) (Count)
system.cpu0.dcache.WriteReq.accesses::total         7503                       # number of WriteReq accesses(hits+misses) (Count)
system.cpu0.dcache.WriteReq.missRate::cpu0.data     0.020392                       # miss rate for WriteReq accesses (Ratio)
system.cpu0.dcache.WriteReq.missRate::total     0.020392                       # miss rate for WriteReq accesses (Ratio)
system.cpu0.dcache.WriteReq.avgMissLatency::cpu0.data 71366.013072                       # average WriteReq miss latency ((Tick/Count))
system.cpu0.dcache.WriteReq.avgMissLatency::total 71366.013072                       # average WriteReq miss latency ((Tick/Count))
system.cpu0.dcache.WriteReq.mshrMisses::cpu0.data          153                       # number of WriteReq MSHR misses (Count)
system.cpu0.dcache.WriteReq.mshrMisses::total          153                       # number of WriteReq MSHR misses (Count)
system.cpu0.dcache.WriteReq.mshrMissLatency::cpu0.data     10766000                       # number of WriteReq MSHR miss ticks (Tick)
system.cpu0.dcache.WriteReq.mshrMissLatency::total     10766000                       # number of WriteReq MSHR miss ticks (Tick)
system.cpu0.dcache.WriteReq.mshrMissRate::cpu0.data     0.020392                       # mshr miss rate for WriteReq accesses (Ratio)
system.cpu0.dcache.WriteReq.mshrMissRate::total     0.020392                       # mshr miss rate for WriteReq accesses (Ratio)
system.cpu0.dcache.WriteReq.avgMshrMissLatency::cpu0.data 70366.013072                       # average WriteReq mshr miss latency ((Tick/Count))
system.cpu0.dcache.WriteReq.avgMshrMissLatency::total 70366.013072                       # average WriteReq mshr miss latency ((Tick/Count))
system.cpu0.dcache.power_state.pwrStateResidencyTicks::UNDEFINED    374372500                       # Cumulative time (in ticks) in various power states (Tick)
system.cpu0.dcache.tags.tagsInUse          600.714745                       # Average ticks per tags in use ((Tick/Count))
system.cpu0.dcache.tags.totalRefs               35208                       # Total number of references to valid blocks. (Count)
system.cpu0.dcache.tags.sampledRefs              1239                       # Sample count of references to valid blocks. (Count)
system.cpu0.dcache.tags.avgRefs             28.416465                       # Average number of references to valid blocks. ((Count/Count))
system.cpu0.dcache.tags.warmupTick             253500                       # The tick when the warmup percentage was hit. (Tick)
system.cpu0.dcache.tags.occupancies::cpu0.data   600.714745                       # Average occupied blocks per tick, per requestor ((Count/Tick))
system.cpu0.dcache.tags.avgOccs::cpu0.data     0.586635                       # Average percentage of cache occupancy ((Ratio/Tick))
system.cpu0.dcache.tags.avgOccs::total       0.586635                       # Average percentage of cache occupancy ((Ratio/Tick))
system.cpu0.dcache.tags.occupanciesTaskId::1024          894                       # Occupied blocks per task id (Count)
system.cpu0.dcache.tags.ageTaskId_1024::0           20                       # Occupied blocks per task id, per block age (Count)
system.cpu0.dcache.tags.ageTaskId_1024::1          129                       # Occupied blocks per task id, per block age (Count)
system.cpu0.dcache.tags.ageTaskId_1024::2          745                       # Occupied blocks per task id, per block age (Count)
system.cpu0.dcache.tags.ratioOccsTaskId::1024     0.873047                       # Ratio of occupied blocks and all blocks, per task id (Ratio)
system.cpu0.dcache.tags.tagAccesses             71655                       # Number of tag accesses (Count)
system.cpu0.dcache.tags.dataAccesses            71655                       # Number of data accesses (Count)
system.cpu0.dcache.tags.power_state.pwrStateResidencyTicks::UNDEFINED    374372500                       # Cumulative time (in ticks) in various power states (Tick)
system.cpu0.dtb_walker_cache.blockedCycles::no_mshrs            0                       # number of cycles access was blocked (Cycle)
system.cpu0.dtb_walker_cache.blockedCycles::no_wbuffers            0                       # number of cycles access was blocked (Cycle)
system.cpu0.dtb_walker_cache.blockedCycles::no_targets            0                       # number of cycles access was blocked (Cycle)
system.cpu0.dtb_walker_cache.blockedCauses::no_mshrs            0                       # number of times access was blocked (Count)
system.cpu0.dtb_walker_cache.blockedCauses::no_wbuffers            0                       # number of times access was blocked (Count)
system.cpu0.dtb_walker_cache.blockedCauses::no_targets            0                       # number of times access was blocked (Count)
system.cpu0.dtb_walker_cache.avgBlocked::no_mshrs          nan                       # average number of cycles each access was blocked ((Cycle/Count))
system.cpu0.dtb_walker_cache.avgBlocked::no_wbuffers          nan                       # average number of cycles each access was blocked ((Cycle/Count))
system.cpu0.dtb_walker_cache.avgBlocked::no_targets          nan                       # average number of cycles each access was blocked ((Cycle/Count))
system.cpu0.dtb_walker_cache.replacements            0                       # number of replacements (Count)
system.cpu0.dtb_walker_cache.power_state.pwrStateResidencyTicks::UNDEFINED    374372500                       # Cumulative time (in ticks) in various power states (Tick)
system.cpu0.dtb_walker_cache.tags.tagsInUse            0                       # Average ticks per tags in use ((Tick/Count))
system.cpu0.dtb_walker_cache.tags.totalRefs            0                       # Total number of references to valid blocks. (Count)
system.cpu0.dtb_walker_cache.tags.sampledRefs            0                       # Sample count of references to valid blocks. (Count)
system.cpu0.dtb_walker_cache.tags.avgRefs          nan                       # Average number of references to valid blocks. ((Count/Count))
system.cpu0.dtb_walker_cache.tags.warmupTick            0                       # The tick when the warmup percentage was hit. (Tick)
system.cpu0.dtb_walker_cache.tags.tagAccesses            0                       # Number of tag accesses (Count)
system.cpu0.dtb_walker_cache.tags.dataAccesses            0                       # Number of data accesses (Count)
system.cpu0.dtb_walker_cache.tags.power_state.pwrStateResidencyTicks::UNDEFINED    374372500                       # Cumulative time (in ticks) in various power states (Tick)
system.cpu0.exec_context.thread_0.numMatAluAccesses            0                       # Number of matrix alu accesses (Count)
system.cpu0.exec_context.thread_0.numMatInsts            0                       # Number of matrix instructions (Count)
system.cpu0.exec_context.thread_0.numIdleCycles  7076.001981                       # Number of idle cycles (Cycle)
system.cpu0.exec_context.thread_0.numBusyCycles 741668.998019                       # Number of busy cycles (Cycle)
system.cpu0.exec_context.thread_0.notIdleFraction     0.990550                       # Percentage of non-idle cycles (Ratio)
system.cpu0.exec_context.thread_0.idleFraction     0.009450                       # Percentage of idle cycles (Ratio)
system.cpu0.executeStats0.numInsts             172959                       # Number of executed instructions (Count)
system.cpu0.executeStats0.numNop                    0                       # Number of nop insts executed (Count)
system.cpu0.executeStats0.numBranches           45388                       # Number of branches executed (Count)
system.cpu0.executeStats0.numLoadInsts          27643                       # Number of load instructions executed (Count)
system.cpu0.executeStats0.numStoreInsts          7565                       # Number of stores executed (Count)
system.cpu0.executeStats0.instRate           0.230999                       # Inst execution rate ((Count/Cycle))
system.cpu0.executeStats0.numFpAluAccesses           12                       # Number of float alu accesses (Count)
system.cpu0.executeStats0.numFpRegReads            12                       # Number of times the floating registers were read (Count)
system.cpu0.executeStats0.numFpRegWrites            0                       # Number of times the floating registers were written (Count)
system.cpu0.executeStats0.numIntAluAccesses       166492                       # Number of integer alu accesses (Count)
system.cpu0.executeStats0.numIntRegReads       195102                       # Number of times the integer registers were read (Count)
system.cpu0.executeStats0.numIntRegWrites       119350                       # Number of times the integer registers were written (Count)
system.cpu0.executeStats0.numMemRefs            35208                       # Number of memory refs (Count)
system.cpu0.executeStats0.numMiscRegReads           76                       # Number of times the Misc registers were read (Count)
system.cpu0.executeStats0.numVecAluAccesses            0                       # Number of vector alu accesses (Count)
system.cpu0.executeStats0.numDiscardedOps            0                       # Number of ops (including micro ops) which were discarded before commit (Count)
system.cpu0.fetchStats0.numInsts               172989                       # Number of instructions fetched (thread level) (Count)
system.cpu0.fetchStats0.numOps                 173074                       # Number of ops (including micro ops) fetched (thread level) (Count)
system.cpu0.fetchStats0.fetchRate            0.231039                       # Number of inst fetches per cycle ((Count/Cycle))
system.cpu0.fetchStats0.numBranches             45388                       # Number of branches fetched (Count)
system.cpu0.fetchStats0.branchRate           0.060619                       # Number of branch fetches per cycle (Ratio)
system.cpu0.fetchStats0.numFetchSuspends            0                       # Number of times Execute suspended instruction fetching (Count)
system.cpu0.icache.demandHits::cpu0.inst       205926                       # number of demand (read+write) hits (Count)
system.cpu0.icache.demandHits::total           205926                       # number of demand (read+write) hits (Count)
system.cpu0.icache.overallHits::cpu0.inst       205926                       # number of overall hits (Count)
system.cpu0.icache.overallHits::total          205926                       # number of overall hits (Count)
system.cpu0.icache.demandMisses::cpu0.inst          521                       # number of demand (read+write) misses (Count)
system.cpu0.icache.demandMisses::total            521                       # number of demand (read+write) misses (Count)
system.cpu0.icache.overallMisses::cpu0.inst          521                       # number of overall misses (Count)
system.cpu0.icache.overallMisses::total           521                       # number of overall misses (Count)
system.cpu0.icache.demandMissLatency::cpu0.inst     38250500                       # number of demand (read+write) miss ticks (Tick)
system.cpu0.icache.demandMissLatency::total     38250500                       # number of demand (read+write) miss ticks (Tick)
system.cpu0.icache.overallMissLatency::cpu0.inst     38250500                       # number of overall miss ticks (Tick)
system.cpu0.icache.overallMissLatency::total     38250500                       # number of overall miss ticks (Tick)
system.cpu0.icache.demandAccesses::cpu0.inst       206447                       # number of demand (read+write) accesses (Count)
system.cpu0.icache.demandAccesses::total       206447                       # number of demand (read+write) accesses (Count)
system.cpu0.icache.overallAccesses::cpu0.inst       206447                       # number of overall (read+write) accesses (Count)
system.cpu0.icache.overallAccesses::total       206447                       # number of overall (read+write) accesses (Count)
system.cpu0.icache.demandMissRate::cpu0.inst     0.002524                       # miss rate for demand accesses (Ratio)
system.cpu0.icache.demandMissRate::total     0.002524                       # miss rate for demand accesses (Ratio)
system.cpu0.icache.overallMissRate::cpu0.inst     0.002524                       # miss rate for overall accesses (Ratio)
system.cpu0.icache.overallMissRate::total     0.002524                       # miss rate for overall accesses (Ratio)
system.cpu0.icache.demandAvgMissLatency::cpu0.inst 73417.466411                       # average overall miss latency in ticks ((Tick/Count))
system.cpu0.icache.demandAvgMissLatency::total 73417.466411                       # average overall miss latency in ticks ((Tick/Count))
system.cpu0.icache.overallAvgMissLatency::cpu0.inst 73417.466411                       # average overall miss latency ((Tick/Count))
system.cpu0.icache.overallAvgMissLatency::total 73417.466411                       # average overall miss latency ((Tick/Count))
system.cpu0.icache.blockedCycles::no_mshrs            0                       # number of cycles access was blocked (Cycle)
system.cpu0.icache.blockedCycles::no_wbuffers            0                       # number of cycles access was blocked (Cycle)
system.cpu0.icache.blockedCycles::no_targets            0                       # number of cycles access was blocked (Cycle)
system.cpu0.icache.blockedCauses::no_mshrs            0                       # number of times access was blocked (Count)
system.cpu0.icache.blockedCauses::no_wbuffers            0                       # number of times access was blocked (Count)
system.cpu0.icache.blockedCauses::no_targets            0                       # number of times access was blocked (Count)
system.cpu0.icache.avgBlocked::no_mshrs           nan                       # average number of cycles each access was blocked ((Cycle/Count))
system.cpu0.icache.avgBlocked::no_wbuffers          nan                       # average number of cycles each access was blocked ((Cycle/Count))
system.cpu0.icache.avgBlocked::no_targets          nan                       # average number of cycles each access was blocked ((Cycle/Count))
system.cpu0.icache.writebacks::writebacks          120                       # number of writebacks (Count)
system.cpu0.icache.writebacks::total              120                       # number of writebacks (Count)
system.cpu0.icache.demandMshrMisses::cpu0.inst          521                       # number of demand (read+write) MSHR misses (Count)
system.cpu0.icache.demandMshrMisses::total          521                       # number of demand (read+write) MSHR misses (Count)
system.cpu0.icache.overallMshrMisses::cpu0.inst          521                       # number of overall MSHR misses (Count)
system.cpu0.icache.overallMshrMisses::total          521                       # number of overall MSHR misses (Count)
system.cpu0.icache.demandMshrMissLatency::cpu0.inst     37729500                       # number of demand (read+write) MSHR miss ticks (Tick)
system.cpu0.icache.demandMshrMissLatency::total     37729500                       # number of demand (read+write) MSHR miss ticks (Tick)
system.cpu0.icache.overallMshrMissLatency::cpu0.inst     37729500                       # number of overall MSHR miss ticks (Tick)
system.cpu0.icache.overallMshrMissLatency::total     37729500                       # number of overall MSHR miss ticks (Tick)
system.cpu0.icache.demandMshrMissRate::cpu0.inst     0.002524                       # mshr miss ratio for demand accesses (Ratio)
system.cpu0.icache.demandMshrMissRate::total     0.002524                       # mshr miss ratio for demand accesses (Ratio)
system.cpu0.icache.overallMshrMissRate::cpu0.inst     0.002524                       # mshr miss ratio for overall accesses (Ratio)
system.cpu0.icache.overallMshrMissRate::total     0.002524                       # mshr miss ratio for overall accesses (Ratio)
system.cpu0.icache.demandAvgMshrMissLatency::cpu0.inst 72417.466411                       # average overall mshr miss latency ((Tick/Count))
system.cpu0.icache.demandAvgMshrMissLatency::total 72417.466411                       # average overall mshr miss latency ((Tick/Count))
system.cpu0.icache.overallAvgMshrMissLatency::cpu0.inst 72417.466411                       # average overall mshr miss latency ((Tick/Count))
system.cpu0.icache.overallAvgMshrMissLatency::total 72417.466411                       # average overall mshr miss latency ((Tick/Count))
system.cpu0.icache.replacements                   120                       # number of replacements (Count)
system.cpu0.icache.ReadReq.hits::cpu0.inst       205926                       # number of ReadReq hits (Count)
system.cpu0.icache.ReadReq.hits::total         205926                       # number of ReadReq hits (Count)
system.cpu0.icache.ReadReq.misses::cpu0.inst          521                       # number of ReadReq misses (Count)
system.cpu0.icache.ReadReq.misses::total          521                       # number of ReadReq misses (Count)
system.cpu0.icache.ReadReq.missLatency::cpu0.inst     38250500                       # number of ReadReq miss ticks (Tick)
system.cpu0.icache.ReadReq.missLatency::total     38250500                       # number of ReadReq miss ticks (Tick)
system.cpu0.icache.ReadReq.accesses::cpu0.inst       206447                       # number of ReadReq accesses(hits+misses) (Count)
system.cpu0.icache.ReadReq.accesses::total       206447                       # number of ReadReq accesses(hits+misses) (Count)
system.cpu0.icache.ReadReq.missRate::cpu0.inst     0.002524                       # miss rate for ReadReq accesses (Ratio)
system.cpu0.icache.ReadReq.missRate::total     0.002524                       # miss rate for ReadReq accesses (Ratio)
system.cpu0.icache.ReadReq.avgMissLatency::cpu0.inst 73417.466411                       # average ReadReq miss latency ((Tick/Count))
system.cpu0.icache.ReadReq.avgMissLatency::total 73417.466411                       # average ReadReq miss latency ((Tick/Count))
system.cpu0.icache.ReadReq.mshrMisses::cpu0.inst          521                       # number of ReadReq MSHR misses (Count)
system.cpu0.icache.ReadReq.mshrMisses::total          521                       # number of ReadReq MSHR misses (Count)
system.cpu0.icache.ReadReq.mshrMissLatency::cpu0.inst     37729500                       # number of ReadReq MSHR miss ticks (Tick)
system.cpu0.icache.ReadReq.mshrMissLatency::total     37729500                       # number of ReadReq MSHR miss ticks (Tick)
system.cpu0.icache.ReadReq.mshrMissRate::cpu0.inst     0.002524                       # mshr miss rate for ReadReq accesses (Ratio)
system.cpu0.icache.ReadReq.mshrMissRate::total     0.002524                       # mshr miss rate for ReadReq accesses (Ratio)
system.cpu0.icache.ReadReq.avgMshrMissLatency::cpu0.inst 72417.466411                       # average ReadReq mshr miss latency ((Tick/Count))
system.cpu0.icache.ReadReq.avgMshrMissLatency::total 72417.466411                       # average ReadReq mshr miss latency ((Tick/Count))
system.cpu0.icache.power_state.pwrStateResidencyTicks::UNDEFINED    374372500                       # Cumulative time (in ticks) in various power states (Tick)
system.cpu0.icache.tags.tagsInUse          220.079710                       # Average ticks per tags in use ((Tick/Count))
system.cpu0.icache.tags.totalRefs              206447                       # Total number of references to valid blocks. (Count)
system.cpu0.icache.tags.sampledRefs               521                       # Sample count of references to valid blocks. (Count)
system.cpu0.icache.tags.avgRefs            396.251440                       # Average number of references to valid blocks. ((Count/Count))
system.cpu0.icache.tags.warmupTick              87500                       # The tick when the warmup percentage was hit. (Tick)
system.cpu0.icache.tags.occupancies::cpu0.inst   220.079710                       # Average occupied blocks per tick, per requestor ((Count/Tick))
system.cpu0.icache.tags.avgOccs::cpu0.inst     0.429843                       # Average percentage of cache occupancy ((Ratio/Tick))
system.cpu0.icache.tags.avgOccs::total       0.429843                       # Average percentage of cache occupancy ((Ratio/Tick))
system.cpu0.icache.tags.occupanciesTaskId::1024          401                       # Occupied blocks per task id (Count)
system.cpu0.icache.tags.ageTaskId_1024::0           82                       # Occupied blocks per task id, per block age (Count)
system.cpu0.icache.tags.ageTaskId_1024::1          181                       # Occupied blocks per task id, per block age (Count)
system.cpu0.icache.tags.ageTaskId_1024::2          138                       # Occupied blocks per task id, per block age (Count)
system.cpu0.icache.tags.ratioOccsTaskId::1024     0.783203                       # Ratio of occupied blocks and all blocks, per task id (Ratio)
system.cpu0.icache.tags.tagAccesses            413415                       # Number of tag accesses (Count)
system.cpu0.icache.tags.dataAccesses           413415                       # Number of data accesses (Count)
system.cpu0.icache.tags.power_state.pwrStateResidencyTicks::UNDEFINED    374372500                       # Cumulative time (in ticks) in various power states (Tick)
system.cpu0.itb_walker_cache.blockedCycles::no_mshrs            0                       # number of cycles access was blocked (Cycle)
system.cpu0.itb_walker_cache.blockedCycles::no_wbuffers            0                       # number of cycles access was blocked (Cycle)
system.cpu0.itb_walker_cache.blockedCycles::no_targets            0                       # number of cycles access was blocked (Cycle)
system.cpu0.itb_walker_cache.blockedCauses::no_mshrs            0                       # number of times access was blocked (Count)
system.cpu0.itb_walker_cache.blockedCauses::no_wbuffers            0                       # number of times access was blocked (Count)
system.cpu0.itb_walker_cache.blockedCauses::no_targets            0                       # number of times access was blocked (Count)
system.cpu0.itb_walker_cache.avgBlocked::no_mshrs          nan                       # average number of cycles each access was blocked ((Cycle/Count))
system.cpu0.itb_walker_cache.avgBlocked::no_wbuffers          nan                       # average number of cycles each access was blocked ((Cycle/Count))
system.cpu0.itb_walker_cache.avgBlocked::no_targets          nan                       # average number of cycles each access was blocked ((Cycle/Count))
system.cpu0.itb_walker_cache.replacements            0                       # number of replacements (Count)
system.cpu0.itb_walker_cache.power_state.pwrStateResidencyTicks::UNDEFINED    374372500                       # Cumulative time (in ticks) in various power states (Tick)
system.cpu0.itb_walker_cache.tags.tagsInUse            0                       # Average ticks per tags in use ((Tick/Count))
system.cpu0.itb_walker_cache.tags.totalRefs            0                       # Total number of references to valid blocks. (Count)
system.cpu0.itb_walker_cache.tags.sampledRefs            0                       # Sample count of references to valid blocks. (Count)
system.cpu0.itb_walker_cache.tags.avgRefs          nan                       # Average number of references to valid blocks. ((Count/Count))
system.cpu0.itb_walker_cache.tags.warmupTick            0                       # The tick when the warmup percentage was hit. (Tick)
system.cpu0.itb_walker_cache.tags.tagAccesses            0                       # Number of tag accesses (Count)
system.cpu0.itb_walker_cache.tags.dataAccesses            0                       # Number of data accesses (Count)
system.cpu0.itb_walker_cache.tags.power_state.pwrStateResidencyTicks::UNDEFINED    374372500                       # Cumulative time (in ticks) in various power states (Tick)
system.cpu0.mmu.dtb.readHits                        0                       # read hits (Count)
system.cpu0.mmu.dtb.readMisses                      0                       # read misses (Count)
system.cpu0.mmu.dtb.readAccesses                    0                       # read accesses (Count)
system.cpu0.mmu.dtb.writeHits                       0                       # write hits (Count)
system.cpu0.mmu.dtb.writeMisses                     0                       # write misses (Count)
system.cpu0.mmu.dtb.writeAccesses                   0                       # write accesses (Count)
system.cpu0.mmu.dtb.hits                            0                       # Total TLB (read and write) hits (Count)
system.cpu0.mmu.dtb.misses                          0                       # Total TLB (read and write) misses (Count)
system.cpu0.mmu.dtb.accesses                        0                       # Total TLB (read and write) accesses (Count)
system.cpu0.mmu.dtb.walker.num_4kb_walks            0                       # Completed page walks with 4KB pages (Count)
system.cpu0.mmu.dtb.walker.num_64kb_walks            0                       # Completed page walks with 64KB pages (Count)
system.cpu0.mmu.dtb.walker.num_2mb_walks            0                       # Completed page walks with 2MB pages (Count)
system.cpu0.mmu.dtb.walker.power_state.pwrStateResidencyTicks::UNDEFINED    374372500                       # Cumulative time (in ticks) in various power states (Tick)
system.cpu0.mmu.itb.readHits                        0                       # read hits (Count)
system.cpu0.mmu.itb.readMisses                      0                       # read misses (Count)
system.cpu0.mmu.itb.readAccesses                    0                       # read accesses (Count)
system.cpu0.mmu.itb.writeHits                       0                       # write hits (Count)
system.cpu0.mmu.itb.writeMisses                     0                       # write misses (Count)
system.cpu0.mmu.itb.writeAccesses                   0                       # write accesses (Count)
system.cpu0.mmu.itb.hits                            0                       # Total TLB (read and write) hits (Count)
system.cpu0.mmu.itb.misses                          0                       # Total TLB (read and write) misses (Count)
system.cpu0.mmu.itb.accesses                        0                       # Total TLB (read and write) accesses (Count)
system.cpu0.mmu.itb.walker.num_4kb_walks            0                       # Completed page walks with 4KB pages (Count)
system.cpu0.mmu.itb.walker.num_64kb_walks            0                       # Completed page walks with 64KB pages (Count)
system.cpu0.mmu.itb.walker.num_2mb_walks            0                       # Completed page walks with 2MB pages (Count)
system.cpu0.mmu.itb.walker.power_state.pwrStateResidencyTicks::UNDEFINED    374372500                       # Cumulative time (in ticks) in various power states (Tick)
system.cpu0.power_state.numTransitions              4                       # Number of power state transitions (Count)
system.cpu0.power_state.ticksClkGated::samples            2                       # Distribution of time spent in the clock gated state (Tick)
system.cpu0.power_state.ticksClkGated::mean      1769000                       # Distribution of time spent in the clock gated state (Tick)
system.cpu0.power_state.ticksClkGated::stdev 2391435.133973                       # Distribution of time spent in the clock gated state (Tick)
system.cpu0.power_state.ticksClkGated::1000-5e+10            2    100.00%    100.00% # Distribution of time spent in the clock gated state (Tick)
system.cpu0.power_state.ticksClkGated::min_value        78000                       # Distribution of time spent in the clock gated state (Tick)
system.cpu0.power_state.ticksClkGated::max_value      3460000                       # Distribution of time spent in the clock gated state (Tick)
system.cpu0.power_state.ticksClkGated::total            2                       # Distribution of time spent in the clock gated state (Tick)
system.cpu0.power_state.pwrStateResidencyTicks::ON    370834500                       # Cumulative time (in ticks) in various power states (Tick)
system.cpu0.power_state.pwrStateResidencyTicks::CLK_GATED      3538000                       # Cumulative time (in ticks) in various power states (Tick)
system.cpu0.thread_0.numInsts                  172959                       # Number of Instructions committed (Count)
system.cpu0.thread_0.numOps                    173044                       # Number of Ops committed (Count)
system.cpu0.thread_0.numMemRefs                 35208                       # Number of Memory References (Count)
system.cpu0.workload.numSyscalls                   26                       # Number of system calls (Count)
system.cpu1.numCycles                          733365                       # Number of cpu cycles simulated (Cycle)
system.cpu1.cpi                             25.109220                       # CPI: cycles per instruction (core level) ((Cycle/Count))
system.cpu1.ipc                              0.039826                       # IPC: instructions per cycle (core level) ((Count/Cycle))
system.cpu1.numWorkItemsStarted                     0                       # Number of work items this cpu started (Count)
system.cpu1.numWorkItemsCompleted                   0                       # Number of work items this cpu completed (Count)
system.cpu1.issuedInstType_0::No_OpClass           11      0.04%      0.04% # Number of insts issued per FU, per thread (Count)
system.cpu1.issuedInstType_0::IntAlu            19733     67.54%     67.58% # Number of insts issued per FU, per thread (Count)
system.cpu1.issuedInstType_0::IntMult            1029      3.52%     71.10% # Number of insts issued per FU, per thread (Count)
system.cpu1.issuedInstType_0::IntDiv               29      0.10%     71.20% # Number of insts issued per FU, per thread (Count)
system.cpu1.issuedInstType_0::FloatAdd              0      0.00%     71.20% # Number of insts issued per FU, per thread (Count)
system.cpu1.issuedInstType_0::FloatCmp              0      0.00%     71.20% # Number of insts issued per FU, per thread (Count)
system.cpu1.issuedInstType_0::FloatCvt              0      0.00%     71.20% # Number of insts issued per FU, per thread (Count)
system.cpu1.issuedInstType_0::FloatMult             0      0.00%     71.20% # Number of insts issued per FU, per thread (Count)
system.cpu1.issuedInstType_0::FloatMultAcc            0      0.00%     71.20% # Number of insts issued per FU, per thread (Count)
system.cpu1.issuedInstType_0::FloatDiv              0      0.00%     71.20% # Number of insts issued per FU, per thread (Count)
system.cpu1.issuedInstType_0::FloatMisc             0      0.00%     71.20% # Number of insts issued per FU, per thread (Count)
system.cpu1.issuedInstType_0::FloatSqrt             0      0.00%     71.20% # Number of insts issued per FU, per thread (Count)
system.cpu1.issuedInstType_0::SimdAdd               0      0.00%     71.20% # Number of insts issued per FU, per thread (Count)
system.cpu1.issuedInstType_0::SimdAddAcc            0      0.00%     71.20% # Number of insts issued per FU, per thread (Count)
system.cpu1.issuedInstType_0::SimdAlu               0      0.00%     71.20% # Number of insts issued per FU, per thread (Count)
system.cpu1.issuedInstType_0::SimdCmp               0      0.00%     71.20% # Number of insts issued per FU, per thread (Count)
system.cpu1.issuedInstType_0::SimdCvt               0      0.00%     71.20% # Number of insts issued per FU, per thread (Count)
system.cpu1.issuedInstType_0::SimdMisc              0      0.00%     71.20% # Number of insts issued per FU, per thread (Count)
system.cpu1.issuedInstType_0::SimdMult              0      0.00%     71.20% # Number of insts issued per FU, per thread (Count)
system.cpu1.issuedInstType_0::SimdMultAcc            0      0.00%     71.20% # Number of insts issued per FU, per thread (Count)
system.cpu1.issuedInstType_0::SimdMatMultAcc            0      0.00%     71.20% # Number of insts issued per FU, per thread (Count)
system.cpu1.issuedInstType_0::SimdShift             0      0.00%     71.20% # Number of insts issued per FU, per thread (Count)
system.cpu1.issuedInstType_0::SimdShiftAcc            0      0.00%     71.20% # Number of insts issued per FU, per thread (Count)
[...]
system.mem_ctrls.dram.readRowHitRate            83.50                       # Row buffer hit rate for reads (Ratio)
system.mem_ctrls.dram.writeRowHitRate             nan                       # Row buffer hit rate for writes (Ratio)
system.mem_ctrls.dram.bytesPerActivate::samples          288                       # Bytes accessed per row activation (Byte)
system.mem_ctrls.dram.bytesPerActivate::mean   389.777778                       # Bytes accessed per row activation (Byte)
system.mem_ctrls.dram.bytesPerActivate::gmean   232.795994                       # Bytes accessed per row activation (Byte)
system.mem_ctrls.dram.bytesPerActivate::stdev   363.722995                       # Bytes accessed per row activation (Byte)
system.mem_ctrls.dram.bytesPerActivate::0-127           83     28.82%     28.82% # Bytes accessed per row activation (Byte)
system.mem_ctrls.dram.bytesPerActivate::128-255           62     21.53%     50.35% # Bytes accessed per row activation (Byte)
system.mem_ctrls.dram.bytesPerActivate::256-383           34     11.81%     62.15% # Bytes accessed per row activation (Byte)
system.mem_ctrls.dram.bytesPerActivate::384-511           15      5.21%     67.36% # Bytes accessed per row activation (Byte)
system.mem_ctrls.dram.bytesPerActivate::512-639           13      4.51%     71.88% # Bytes accessed per row activation (Byte)
system.mem_ctrls.dram.bytesPerActivate::640-767           11      3.82%     75.69% # Bytes accessed per row activation (Byte)
system.mem_ctrls.dram.bytesPerActivate::768-895           12      4.17%     79.86% # Bytes accessed per row activation (Byte)
system.mem_ctrls.dram.bytesPerActivate::896-1023           13      4.51%     84.37% # Bytes accessed per row activation (Byte)
system.mem_ctrls.dram.bytesPerActivate::1024-1151           45     15.62%    100.00% # Bytes accessed per row activation (Byte)
system.mem_ctrls.dram.bytesPerActivate::total          288                       # Bytes accessed per row activation (Byte)
system.mem_ctrls.dram.dramBytesRead            112512                       # Total bytes read (Byte)
system.mem_ctrls.dram.dramBytesWritten              0                       # Total bytes written (Byte)
system.mem_ctrls.dram.avgRdBW              300.534895                       # Average DRAM read bandwidth in MiBytes/s ((Byte/Second))
system.mem_ctrls.dram.avgWrBW                       0                       # Average DRAM write bandwidth in MiBytes/s ((Byte/Second))
system.mem_ctrls.dram.peakBW                 12800.00                       # Theoretical peak bandwidth in MiByte/s ((Byte/Second))
system.mem_ctrls.dram.busUtil                    2.35                       # Data bus utilization in percentage (Ratio)
system.mem_ctrls.dram.busUtilRead                2.35                       # Data bus utilization in percentage for reads (Ratio)
system.mem_ctrls.dram.busUtilWrite               0.00                       # Data bus utilization in percentage for writes (Ratio)
system.mem_ctrls.dram.pageHitRate               83.50                       # Row buffer hit rate, read and write combined (Ratio)
system.mem_ctrls.dram.power_state.pwrStateResidencyTicks::UNDEFINED    374372500                       # Cumulative time (in ticks) in various power states (Tick)
system.mem_ctrls.dram.rank0.actEnergy         1356600                       # Energy for activate commands per rank (pJ) (Joule)
system.mem_ctrls.dram.rank0.preEnergy          713460                       # Energy for precharge commands per rank (pJ) (Joule)
system.mem_ctrls.dram.rank0.readEnergy        6390300                       # Energy for read commands per rank (pJ) (Joule)
system.mem_ctrls.dram.rank0.writeEnergy             0                       # Energy for write commands per rank (pJ) (Joule)
system.mem_ctrls.dram.rank0.refreshEnergy 29502720.000000                       # Energy for refresh commands per rank (pJ) (Joule)
system.mem_ctrls.dram.rank0.actBackEnergy     72407100                       # Energy for active background per rank (pJ) (Joule)
system.mem_ctrls.dram.rank0.preBackEnergy     82784640                       # Energy for precharge background per rank (pJ) (Joule)
system.mem_ctrls.dram.rank0.actPowerDownEnergy            0                       # Energy for active power-down per rank (pJ) (Joule)
system.mem_ctrls.dram.rank0.prePowerDownEnergy            0                       # Energy for precharge power-down per rank (pJ) (Joule)
system.mem_ctrls.dram.rank0.selfRefreshEnergy            0                       # Energy for self refresh per rank (pJ) (Joule)
system.mem_ctrls.dram.rank0.totalEnergy     193154820                       # Total energy per rank (pJ) (Joule)
system.mem_ctrls.dram.rank0.averagePower   515.942864                       # Core power per rank (mW) (Watt)
system.mem_ctrls.dram.rank0.totalIdleTime            0                       # Total Idle time Per DRAM Rank (Tick)
system.mem_ctrls.dram.rank0.pwrStateTime::IDLE    214532500                       # Time in different power states (Tick)
system.mem_ctrls.dram.rank0.pwrStateTime::REF     12480000                       # Time in different power states (Tick)
system.mem_ctrls.dram.rank0.pwrStateTime::SREF            0                       # Time in different power states (Tick)
system.mem_ctrls.dram.rank0.pwrStateTime::PRE_PDN            0                       # Time in different power states (Tick)
system.mem_ctrls.dram.rank0.pwrStateTime::ACT    147360000                       # Time in different power states (Tick)
system.mem_ctrls.dram.rank0.pwrStateTime::ACT_PDN            0                       # Time in different power states (Tick)
system.mem_ctrls.dram.rank1.actEnergy          714000                       # Energy for activate commands per rank (pJ) (Joule)
system.mem_ctrls.dram.rank1.preEnergy          379500                       # Energy for precharge commands per rank (pJ) (Joule)
system.mem_ctrls.dram.rank1.readEnergy        6161820                       # Energy for read commands per rank (pJ) (Joule)
system.mem_ctrls.dram.rank1.writeEnergy             0                       # Energy for write commands per rank (pJ) (Joule)
system.mem_ctrls.dram.rank1.refreshEnergy 29502720.000000                       # Energy for refresh commands per rank (pJ) (Joule)
system.mem_ctrls.dram.rank1.actBackEnergy    118508130                       # Energy for active background per rank (pJ) (Joule)
system.mem_ctrls.dram.rank1.preBackEnergy     43962720                       # Energy for precharge background per rank (pJ) (Joule)
system.mem_ctrls.dram.rank1.actPowerDownEnergy            0                       # Energy for active power-down per rank (pJ) (Joule)
system.mem_ctrls.dram.rank1.prePowerDownEnergy            0                       # Energy for precharge power-down per rank (pJ) (Joule)
system.mem_ctrls.dram.rank1.selfRefreshEnergy            0                       # Energy for self refresh per rank (pJ) (Joule)
system.mem_ctrls.dram.rank1.totalEnergy     199228890                       # Total energy per rank (pJ) (Joule)
system.mem_ctrls.dram.rank1.averagePower   532.167534                       # Core power per rank (mW) (Watt)
system.mem_ctrls.dram.rank1.totalIdleTime            0                       # Total Idle time Per DRAM Rank (Tick)
system.mem_ctrls.dram.rank1.pwrStateTime::IDLE    113037500                       # Time in different power states (Tick)
system.mem_ctrls.dram.rank1.pwrStateTime::REF     12480000                       # Time in different power states (Tick)
system.mem_ctrls.dram.rank1.pwrStateTime::SREF            0                       # Time in different power states (Tick)
system.mem_ctrls.dram.rank1.pwrStateTime::PRE_PDN            0                       # Time in different power states (Tick)
system.mem_ctrls.dram.rank1.pwrStateTime::ACT    248855000                       # Time in different power states (Tick)
system.mem_ctrls.dram.rank1.pwrStateTime::ACT_PDN            0                       # Time in different power states (Tick)
system.mem_ctrls.power_state.pwrStateResidencyTicks::UNDEFINED    374372500                       # Cumulative time (in ticks) in various power states (Tick)
system.membus.transDist::ReadResp                1594                       # Transaction distribution (Count)
system.membus.transDist::UpgradeReq                13                       # Transaction distribution (Count)
system.membus.transDist::ReadExReq                164                       # Transaction distribution (Count)
system.membus.transDist::ReadExResp               164                       # Transaction distribution (Count)
system.membus.transDist::ReadSharedReq           1594                       # Transaction distribution (Count)
system.membus.pktCount_system.l2.mem_side_port::system.mem_ctrls.port         3529                       # Packet count per connected requestor and responder (Count)
system.membus.pktCount::total                    3529                       # Packet count per connected requestor and responder (Count)
system.membus.pktSize_system.l2.mem_side_port::system.mem_ctrls.port       112512                       # Cumulative packet size per connected requestor and responder (Byte)
system.membus.pktSize::total                   112512                       # Cumulative packet size per connected requestor and responder (Byte)
system.membus.snoops                               13                       # Total snoops (Count)
system.membus.snoopTraffic                          0                       # Total snoop traffic (Byte)
system.membus.snoopFanout::samples               1771                       # Request fanout histogram (Count)
system.membus.snoopFanout::mean                     0                       # Request fanout histogram (Count)
system.membus.snoopFanout::stdev                    0                       # Request fanout histogram (Count)
system.membus.snoopFanout::underflows               0      0.00%      0.00% # Request fanout histogram (Count)
system.membus.snoopFanout::0                     1771    100.00%    100.00% # Request fanout histogram (Count)
system.membus.snoopFanout::1                        0      0.00%    100.00% # Request fanout histogram (Count)
system.membus.snoopFanout::overflows                0      0.00%    100.00% # Request fanout histogram (Count)
system.membus.snoopFanout::min_value                0                       # Request fanout histogram (Count)
system.membus.snoopFanout::max_value                0                       # Request fanout histogram (Count)
system.membus.snoopFanout::total                 1771                       # Request fanout histogram (Count)
system.membus.power_state.pwrStateResidencyTicks::UNDEFINED    374372500                       # Cumulative time (in ticks) in various power states (Tick)
system.membus.reqLayer0.occupancy             1763000                       # Layer occupancy (ticks) (Tick)
system.membus.reqLayer0.utilization               0.0                       # Layer utilization (Ratio)
system.membus.respLayer1.occupancy            9318250                       # Layer occupancy (ticks) (Tick)
system.membus.respLayer1.utilization              0.0                       # Layer utilization (Ratio)
system.membus.snoop_filter.totRequests           1771                       # Total number of requests made to the snoop filter. (Count)
system.membus.snoop_filter.hitSingleRequests           13                       # Number of requests hitting in the snoop filter with a single holder of the requested data. (Count)
system.membus.snoop_filter.hitMultiRequests            0                       # Number of requests hitting in the snoop filter with multiple (>1) holders of the requested data. (Count)
system.membus.snoop_filter.totSnoops                0                       # Total number of snoops made to the snoop filter. (Count)
system.membus.snoop_filter.hitSingleSnoops            0                       # Number of snoops hitting in the snoop filter with a single holder of the requested data. (Count)
system.membus.snoop_filter.hitMultiSnoops            0                       # Number of snoops hitting in the snoop filter with multiple (>1) holders of the requested data. (Count)
system.tol2bus.transDist::ReadResp               1811                       # Transaction distribution (Count)
system.tol2bus.transDist::WritebackDirty           85                       # Transaction distribution (Count)
system.tol2bus.transDist::WritebackClean          123                       # Transaction distribution (Count)
system.tol2bus.transDist::CleanEvict              239                       # Transaction distribution (Count)
system.tol2bus.transDist::UpgradeReq               22                       # Transaction distribution (Count)
system.tol2bus.transDist::SCUpgradeReq              1                       # Transaction distribution (Count)
system.tol2bus.transDist::UpgradeResp              23                       # Transaction distribution (Count)
system.tol2bus.transDist::ReadExReq               182                       # Transaction distribution (Count)
system.tol2bus.transDist::ReadExResp              182                       # Transaction distribution (Count)
system.tol2bus.transDist::ReadCleanReq            663                       # Transaction distribution (Count)
system.tol2bus.transDist::ReadSharedReq          1148                       # Transaction distribution (Count)
system.tol2bus.pktCount_system.cpu0.icache.mem_side_port::system.l2.cpu_side_port         1162                       # Packet count per connected requestor and responder (Count)
system.tol2bus.pktCount_system.cpu0.dcache.mem_side_port::system.l2.cpu_side_port         2803                       # Packet count per connected requestor and responder (Count)
system.tol2bus.pktCount_system.cpu1.icache.mem_side_port::system.l2.cpu_side_port          287                       # Packet count per connected requestor and responder (Count)
system.tol2bus.pktCount_system.cpu1.dcache.mem_side_port::system.l2.cpu_side_port          172                       # Packet count per connected requestor and responder (Count)
system.tol2bus.pktCount::total                   4424                       # Packet count per connected requestor and responder (Count)
system.tol2bus.pktSize_system.cpu0.icache.mem_side_port::system.l2.cpu_side_port        41024                       # Cumulative packet size per connected requestor and responder (Byte)
system.tol2bus.pktSize_system.cpu0.dcache.mem_side_port::system.l2.cpu_side_port        83712                       # Cumulative packet size per connected requestor and responder (Byte)
system.tol2bus.pktSize_system.cpu1.icache.mem_side_port::system.l2.cpu_side_port         9280                       # Cumulative packet size per connected requestor and responder (Byte)
system.tol2bus.pktSize_system.cpu1.dcache.mem_side_port::system.l2.cpu_side_port         4160                       # Cumulative packet size per connected requestor and responder (Byte)
system.tol2bus.pktSize::total                  138176                       # Cumulative packet size per connected requestor and responder (Byte)
system.tol2bus.snoops                              55                       # Total snoops (Count)
system.tol2bus.snoopTraffic                      2688                       # Total snoop traffic (Byte)
system.tol2bus.snoopFanout::samples              2016                       # Request fanout histogram (Count)
system.tol2bus.snoopFanout::mean             0.096726                       # Request fanout histogram (Count)
system.tol2bus.snoopFanout::stdev            0.295658                       # Request fanout histogram (Count)
system.tol2bus.snoopFanout::underflows              0      0.00%      0.00% # Request fanout histogram (Count)
system.tol2bus.snoopFanout::0                    1821     90.33%     90.33% # Request fanout histogram (Count)
system.tol2bus.snoopFanout::1                     195      9.67%    100.00% # Request fanout histogram (Count)
system.tol2bus.snoopFanout::2                       0      0.00%    100.00% # Request fanout histogram (Count)
system.tol2bus.snoopFanout::3                       0      0.00%    100.00% # Request fanout histogram (Count)
system.tol2bus.snoopFanout::4                       0      0.00%    100.00% # Request fanout histogram (Count)
system.tol2bus.snoopFanout::5                       0      0.00%    100.00% # Request fanout histogram (Count)
system.tol2bus.snoopFanout::6                       0      0.00%    100.00% # Request fanout histogram (Count)
system.tol2bus.snoopFanout::7                       0      0.00%    100.00% # Request fanout histogram (Count)
system.tol2bus.snoopFanout::8                       0      0.00%    100.00% # Request fanout histogram (Count)
system.tol2bus.snoopFanout::overflows               0      0.00%    100.00% # Request fanout histogram (Count)
system.tol2bus.snoopFanout::min_value               0                       # Request fanout histogram (Count)
system.tol2bus.snoopFanout::max_value               1                       # Request fanout histogram (Count)
system.tol2bus.snoopFanout::total                2016                       # Request fanout histogram (Count)
system.tol2bus.power_state.pwrStateResidencyTicks::UNDEFINED    374372500                       # Cumulative time (in ticks) in various power states (Tick)
system.tol2bus.reqLayer0.occupancy            1439500                       # Layer occupancy (ticks) (Tick)
system.tol2bus.reqLayer0.utilization              0.0                       # Layer utilization (Ratio)
system.tol2bus.respLayer0.occupancy            782498                       # Layer occupancy (ticks) (Tick)
system.tol2bus.respLayer0.utilization             0.0                       # Layer utilization (Ratio)
system.tol2bus.respLayer1.occupancy           1864000                       # Layer occupancy (ticks) (Tick)
system.tol2bus.respLayer1.utilization             0.0                       # Layer utilization (Ratio)
system.tol2bus.respLayer4.occupancy            215495                       # Layer occupancy (ticks) (Tick)
system.tol2bus.respLayer4.utilization             0.0                       # Layer utilization (Ratio)
system.tol2bus.respLayer5.occupancy            143997                       # Layer occupancy (ticks) (Tick)
system.tol2bus.respLayer5.utilization             0.0                       # Layer utilization (Ratio)
system.tol2bus.snoop_filter.totRequests          2463                       # Total number of requests made to the snoop filter. (Count)
system.tol2bus.snoop_filter.hitSingleRequests          601                       # Number of requests hitting in the snoop filter with a single holder of the requested data. (Count)
system.tol2bus.snoop_filter.hitMultiRequests           41                       # Number of requests hitting in the snoop filter with multiple (>1) holders of the requested data. (Count)
system.tol2bus.snoop_filter.totSnoops               0                       # Total number of snoops made to the snoop filter. (Count)
system.tol2bus.snoop_filter.hitSingleSnoops            0                       # Number of snoops hitting in the snoop filter with a single holder of the requested data. (Count)
system.tol2bus.snoop_filter.hitMultiSnoops            0                       # Number of snoops hitting in the snoop filter with multiple (>1) holders of the requested data. (Count)
system.voltage_domain.voltage                       1                       # Voltage in Volts (Volt)
system.workload.inst.arm                            0                       # number of arm instructions executed (Count)
system.workload.inst.quiesce                        0                       # number of quiesce instructions executed (Count)

---------- End Simulation Statistics   ----------
